powerfulcases/cases/matpower/case1888rte/case1888rte.raw
0, 100, 33, 0, 0, 60  / 28-Jan-2026 21:51:04 - MATPOWER 8.1


     1, 'BUS 1       ',       225, 1,    1,    1, 1,  1.03149333, -43.4924134, 1.08889, 0.888889, 1.08889, 0.888889
     2, 'BUS 2       ',       380, 1,    1,    1, 1,  1.05203485, -1.69989632, 1.10263, 1.04841, 1.10263, 1.04841
     3, 'BUS 3       ',       225, 1,    1,    1, 1,   1.0448381, -18.2673882, 1.08444, 1.00444, 1.08444, 1.00444
     4, 'BUS 4       ',       150, 1,    1,    1, 1,  1.06460516, -20.5923155, 1.10667,  0.9, 1.10667,  0.9
     5, 'BUS 5       ',       225, 1,    1,    1, 1,  1.06160466,  -24.974129, 1.08889, 0.933333, 1.08889, 0.933333
     6, 'BUS 6       ',       225, 1,    1,    1, 1,  1.06056279, -25.2851419, 1.08889, 0.933333, 1.08889, 0.933333
     7, 'BUS 7       ',       380, 1,    1,    1, 1,  1.05380777, -21.4555758, 1.10526, 1.03947, 1.10526, 1.03947
     8, 'BUS 8       ',       380, 1,    1,    1, 1,  1.05708339, -22.5908652, 1.10526, 1.03947, 1.10526, 1.03947
     9, 'BUS 9       ',       225, 1,    1,    1, 1,  1.04785952,   -36.52218, 1.09035, 1.00444, 1.09035, 1.00444
    10, 'BUS 10      ',       225, 1,    1,    1, 1,  1.04436458, -29.2139973, 1.08889, 0.933333, 1.08889, 0.933333
    11, 'BUS 11      ',       225, 1,    1,    1, 1,  1.04319498, -40.8700924, 1.08889, 1.00444, 1.08889, 1.00444
    12, 'BUS 12      ',       225, 1,    1,    1, 1,  1.02281295, -40.3898303, 1.08889, 1.00444, 1.08889, 1.00444
    13, 'BUS 13      ',       225, 1,    1,    1, 1,  1.04317979, -40.8672304, 1.08889, 1.00444, 1.08889, 1.00444
    14, 'BUS 14      ',       225, 1,    1,    1, 1,  1.02894304, -42.5999043, 1.08252, 0.95, 1.08252, 0.95
    15, 'BUS 15      ',       225, 1,    1,    1, 1,  1.05264309, -32.8339736, 1.08889, 1.00444, 1.08889, 1.00444
    16, 'BUS 16      ',       225, 1,    1,    1, 1,  1.05264349, -32.8339765, 1.08889, 1.00444, 1.08889, 1.00444
    17, 'BUS 17      ',       225, 1,    1,    1, 1,  1.02901493,  -42.627265, 1.08889, 0.888889, 1.08889, 0.888889
    18, 'BUS 18      ',       225, 1,    1,    1, 1,  1.03827721,  -34.821698, 1.09633, 0.986667, 1.09633, 0.986667
    19, 'BUS 19      ',       225, 1,    1,    1, 1,  1.03589153, -40.9750755, 1.08889, 1.00444, 1.08889, 1.00444
    20, 'BUS 20      ',       225, 1,    1,    1, 1,  1.03591814, -40.9727768, 1.08889, 1.00444, 1.08889, 1.00444
    21, 'BUS 21      ',       225, 1,    1,    1, 1,  1.04563856,  -37.729861, 1.08889, 1.00444, 1.08889, 1.00444
    22, 'BUS 22      ',       225, 1,    1,    1, 1,  1.04526149,  -38.013764, 1.08889, 0.986667, 1.08889, 0.986667
    23, 'BUS 23      ',       225, 1,    1,    1, 1,  1.02132076, -46.8550416, 1.08889, 0.888889, 1.08889, 0.888889
    25, 'BUS 25      ',       225, 1,    1,    1, 1,  1.05341127, -16.9569828, 1.08444, 1.00889, 1.08444, 1.00889
    27, 'BUS 27      ',       225, 1,    1,    1, 1,  1.02093389, -19.8876317, 1.08889, 0.933333, 1.08889, 0.933333
    28, 'BUS 28      ',       225, 1,    1,    1, 1,  1.03730024, -35.8773947, 1.08889, 1.00444, 1.08889, 1.00444
    29, 'BUS 29      ',       380, 1,    1,    1, 1,  1.05200172, -1.68628576, 1.10526, 1.04842, 1.10526, 1.04842
    30, 'BUS 30      ',       380, 1,    1,    1, 1,  1.05203048, -1.66991411, 1.10526, 1.04842, 1.10526, 1.04842
    31, 'BUS 31      ',       225, 1,    1,    1, 1,  1.04882932, -5.02836666, 1.08444, 1.00889, 1.08444, 1.00889
    33, 'BUS 33      ',       225, 1,    1,    1, 1,  1.03238586, -5.81622313, 1.08444, 1.00889, 1.08444, 1.00889
    34, 'BUS 34      ',       225, 1,    1,    1, 1,  1.04308498,  -40.784603, 1.08889, 1.00444, 1.08889, 1.00444
    35, 'BUS 35      ',       150, 1,    1,    1, 1,  1.02288941, -21.6110255, 1.08, 0.966667, 1.08, 0.966667
    36, 'BUS 36      ',       225, 1,    1,    1, 1,  1.06155485, -30.7719291, 1.09212,    1, 1.09212,    1
    37, 'BUS 37      ',       380, 1,    1,    1, 1,  1.06914917, -28.3384744, 1.10526, 1.04785, 1.10526, 1.04785
    38, 'BUS 38      ',       225, 1,    1,    1, 1,  1.04384914, -38.1605038, 1.08889, 0.986667, 1.08889, 0.986667
  2050, 'BUS 2050    ',        20, 1,    1,    1, 1,  1.02504482, -43.1806456,  1.5,  0.8,  1.5,  0.8
    39, 'BUS 39      ',       225, 1,    1,    1, 1,   1.0289438, -42.3593003, 1.08889, 0.968889, 1.08889, 0.968889
    40, 'BUS 40      ',       380, 1,    1,    1, 1,  1.03444741, -38.8153203, 1.10526,    1, 1.10526,    1
    41, 'BUS 41      ',       225, 1,    1,    1, 1,  1.04164115, -27.3301536, 1.08889, 0.933333, 1.08889, 0.933333
    42, 'BUS 42      ',       225, 1,    1,    1, 1,  1.02663818, -46.6229704, 1.08889, 0.888889, 1.08889, 0.888889
    43, 'BUS 43      ',       225, 1,    1,    1, 1,   1.0264638, -46.6671033, 1.08889, 0.888889, 1.08889, 0.888889
    44, 'BUS 44      ',       225, 1,    1,    1, 1,  1.05486257, -26.1320802, 1.08496, 1.00444, 1.08496, 1.00444
    45, 'BUS 45      ',       225, 1,    1,    1, 1,  1.04812576, -38.9307223, 1.08889, 1.00444, 1.08889, 1.00444
    46, 'BUS 46      ',       150, 2,    1,    1, 1,       1.038,   -7.667229, 1.10843,  0.9, 1.10843,  0.9
    47, 'BUS 47      ',       225, 1,    1,    1, 1,   1.0263661,  -41.311783, 1.08889, 1.00444, 1.08889, 1.00444
    48, 'BUS 48      ',       225, 1,    1,    1, 1,  1.02636589, -41.3117818, 1.08889, 1.00444, 1.08889, 1.00444
    49, 'BUS 49      ',       225, 1,    1,    1, 1,  1.02636466, -41.3117749, 1.08889, 1.00444, 1.08889, 1.00444
    50, 'BUS 50      ',       225, 1,    1,    1, 1,  1.03638741, -36.2197213, 1.08889, 1.00444, 1.08889, 1.00444
    51, 'BUS 51      ',       225, 1,    1,    1, 1,  1.05188712, -17.4043224, 1.08889,    1, 1.08889,    1
    52, 'BUS 52      ',       225, 1,    1,    1, 1,  1.01896671, -46.9184464, 1.08889, 0.888889, 1.08889, 0.888889
    53, 'BUS 53      ',       225, 1,    1,    1, 1,  1.01034096, -45.5670543, 1.08889, 0.968889, 1.08889, 0.968889
    54, 'BUS 54      ',       380, 1,    1,    1, 1,  1.01362701, -43.3936365, 1.10526,    1, 1.10526,    1
    55, 'BUS 55      ',       225, 1,    1,    1, 1,  1.02696752, -5.12919002, 1.08444, 1.00889, 1.08444, 1.00889
    56, 'BUS 56      ',       225, 1,    1,    1, 1,   1.0271573, -5.13060801, 1.08444, 1.00889, 1.08444, 1.00889
  1827, 'BUS 1827    ',       225, 1,    1,    1, 1,  1.04260248, -34.6579535, 1.08889, 1.00444, 1.08889, 1.00444
    57, 'BUS 57      ',       225, 1,    1,    1, 1,  1.05354664, -20.3612759, 1.08945, 0.933333, 1.08945, 0.933333
    58, 'BUS 58      ',       150, 2,    1,    1, 1,  1.03648193, -7.87858801, 1.10862,  0.9, 1.10862,  0.9
    59, 'BUS 59      ',       225, 1,    1,    1, 1,  1.02314002, -2.05815662, 1.08444, 1.00889, 1.08444, 1.00889
    60, 'BUS 60      ',       225, 1,    1,    1, 1,  1.02296855, -2.05607045, 1.08444, 1.00889, 1.08444, 1.00889
    61, 'BUS 61      ',       225, 1,    1,    1, 1,  1.02486847, -2.91097833, 1.08889, 0.977778, 1.08889, 0.977778
    62, 'BUS 62      ',       225, 1,    1,    1, 1,  1.02838774, -44.8442595, 1.08889, 0.888889, 1.08889, 0.888889
    63, 'BUS 63      ',       225, 1,    1,    1, 1,  1.06744633, -26.4263846, 1.08889, 0.933333, 1.08889, 0.933333
    64, 'BUS 64      ',       225, 1,    1,    1, 1,  1.02235895, -40.5268336, 1.08889, 1.00444, 1.08889, 1.00444
    65, 'BUS 65      ',       225, 1,    1,    1, 1,  1.04797022, -36.5723751, 1.08889, 1.00444, 1.08889, 1.00444
    66, 'BUS 66      ',       225, 1,    1,    1, 1,  1.05467372, -17.6792601, 1.08889,    1, 1.08889,    1
    67, 'BUS 67      ',       225, 1,    1,    1, 1,  1.03887262, -32.7145163, 1.08889, 0.986667, 1.08889, 0.986667
    68, 'BUS 68      ',       225, 1,    1,    1, 1,  1.02951107, -46.2333151, 1.08889, 0.888889, 1.08889, 0.888889
    69, 'BUS 69      ',       225, 1,    1,    1, 1,  1.02342882, -46.4249539, 1.08889, 0.888889, 1.08889, 0.888889
    70, 'BUS 70      ',       380, 1,    1,    1, 1,   1.0318011, -44.4602666, 1.10526, 1.01316, 1.10526, 1.01316
    71, 'BUS 71      ',       225, 1,    1,    1, 1,  1.03661923, -41.0915733, 1.08889, 1.00444, 1.08889, 1.00444
    72, 'BUS 72      ',       225, 1,    1,    1, 1,  1.03559998, -40.0611412, 1.08889, 1.00444, 1.08889, 1.00444
    73, 'BUS 73      ',       225, 1,    1,    1, 1,  1.04335905, -5.37629191, 1.08889, 0.977778, 1.08889, 0.977778
    74, 'BUS 74      ',       225, 1,    1,    1, 1,   1.0433684,  -5.3756094, 1.08889, 0.977778, 1.08889, 0.977778
    75, 'BUS 75      ',       225, 1,    1,    1, 1,  1.04166114, -5.85761588, 1.08444, 1.00889, 1.08444, 1.00889
    76, 'BUS 76      ',       225, 1,    1,    1, 1,  1.05127602, -21.5672592, 1.08444, 1.00444, 1.08444, 1.00444
    77, 'BUS 77      ',       380, 1,    1,    1, 1,  1.04792325, -16.6550615, 1.10263, 1.04211, 1.10263, 1.04211
    78, 'BUS 78      ',       225, 1,    1,    1, 1,  1.05118552,  -21.616673, 1.08444, 1.00444, 1.08444, 1.00444
    79, 'BUS 79      ',       225, 1,    1,    1, 1,  1.02331098, -40.2941188, 1.08936, 1.00444, 1.08936, 1.00444
    80, 'BUS 80      ',       225, 1,    1,    1, 1,  1.02331121, -40.2982078, 1.08936, 1.00444, 1.08936, 1.00444
    81, 'BUS 81      ',       225, 1,    1,    1, 1,  1.03217693, -41.4880591, 1.08889, 0.888889, 1.08889, 0.888889
    82, 'BUS 82      ',       225, 1,    1,    1, 1,  1.02481856, -45.0281473, 1.08124, 0.95, 1.08124, 0.95
    83, 'BUS 83      ',       225, 1,    1,    1, 1,  1.01752839, -46.2166908, 1.08889, 0.888889, 1.08889, 0.888889
    84, 'BUS 84      ',       225, 1,    1,    1, 1,  1.05114958, -18.5175825, 1.08889,    1, 1.08889,    1
    85, 'BUS 85      ',       225, 1,    1,    1, 1,  1.02932206, -16.3727754, 1.08889,    1, 1.08889,    1
    86, 'BUS 86      ',       380, 1,    1,    1, 1,  1.06749173,  -16.360036, 1.10526, 1.0507, 1.10526, 1.0507
    87, 'BUS 87      ',       225, 1,    1,    1, 1,  1.04562791, -13.9985911, 1.08889,    1, 1.08889,    1
    88, 'BUS 88      ',       225, 1,    1,    1, 1,  1.05684667, -17.6200243, 1.08889,    1, 1.08889,    1
    89, 'BUS 89      ',       150, 2,    1,    1, 1,        1.02, -12.0782361,  1.1,  0.9,  1.1,  0.9
    90, 'BUS 90      ',       225, 1,    1,    1, 1,  1.01562498, -34.6787681, 1.08889, 0.986667, 1.08889, 0.986667
    91, 'BUS 91      ',       225, 1,    1,    1, 1,   1.0442032, -9.20439526, 1.08444, 1.00889, 1.08444, 1.00889
    92, 'BUS 92      ',       380, 1,    1,    1, 1,  1.04784091, -30.3617823, 1.10526, 1.04211, 1.10526, 1.04211
    93, 'BUS 93      ',       380, 1,    1,    1, 1,  1.04819669, -30.7872457, 1.10526, 1.04211, 1.10526, 1.04211
    96, 'BUS 96      ',       225, 1,    1,    1, 1,  1.05246647, -18.3716113, 1.08889,    1, 1.08889,    1
    97, 'BUS 97      ',       225, 1,    1,    1, 1,  1.05271498, -34.1174229, 1.08889, 1.00444, 1.08889, 1.00444
    98, 'BUS 98      ',       150, 1,    1,    1, 1,  1.02595701,  -10.633136,  1.1,  0.9,  1.1,  0.9
    99, 'BUS 99      ',       225, 1,    1,    1, 1,  1.05109262, -20.0623153, 1.08889,    1, 1.08889,    1
   100, 'BUS 100     ',       225, 2,    1,    1, 1,       1.036, -41.0134772, 1.08294, 0.95, 1.08294, 0.95
   101, 'BUS 101     ',       225, 1,    1,    1, 1,  1.06130462, -25.0525845, 1.08889, 0.933333, 1.08889, 0.933333
   102, 'BUS 102     ',       380, 1,    1,    1, 1,  1.05730728, -22.5507174, 1.10526, 1.03947, 1.10526, 1.03947
   103, 'BUS 103     ',       380, 1,    1,    1, 1,  1.05390093, -21.4221244, 1.10526, 1.03947, 1.10526, 1.03947
   104, 'BUS 104     ',       225, 1,    1,    1, 1,  1.04342734, -40.8553116, 1.08889, 1.00444, 1.08889, 1.00444
  1828, 'BUS 1828    ',       225, 1,    1,    1, 1,  1.03331865, -42.0075156, 1.08889, 1.00444, 1.08889, 1.00444
   105, 'BUS 105     ',       225, 1,    1,    1, 1,   1.0153912, -37.0396936, 1.08889, 0.986667, 1.08889, 0.986667
   106, 'BUS 106     ',       225, 1,    1,    1, 1,  1.04327481, -40.8636252, 1.08889, 1.00444, 1.08889, 1.00444
   107, 'BUS 107     ',       225, 1,    1,    1, 1,  1.03317069,  -24.414835, 1.08889, 0.933333, 1.08889, 0.933333
   108, 'BUS 108     ',       380, 1,    1,    1, 1,   1.0448452, -22.5790651, 1.10526, 1.03947, 1.10526, 1.03947
   109, 'BUS 109     ',       225, 1,    1,    1, 1,  1.05363596,  -16.874679, 1.08889,    1, 1.08889,    1
   110, 'BUS 110     ',       225, 1,    1,    1, 1,  1.04972999, -38.4350145, 1.08986, 1.00444, 1.08986, 1.00444
   111, 'BUS 111     ',       225, 1,    1,    1, 1,  1.07047513, -24.3641392, 1.09612,    1, 1.09612,    1
   112, 'BUS 112     ',       225, 1,    1,    1, 1,    1.036317, -35.8006563, 1.08889, 0.986667, 1.08889, 0.986667
   113, 'BUS 113     ',       225, 1,    1,    1, 1,  1.04783962, -36.5197778, 1.09036, 1.00444, 1.09036, 1.00444
   114, 'BUS 114     ',       225, 1,    1,    1, 1,  1.01859218, -46.9856319, 1.08889, 0.924444, 1.08889, 0.924444
   115, 'BUS 115     ',       225, 1,    1,    1, 1,  1.04478539, -31.9620766, 1.09614, 0.986667, 1.09614, 0.986667
   117, 'BUS 117     ',       380, 1,    1,    1, 1,  1.04949781, -30.8376086, 1.10526, 1.03947, 1.10526, 1.03947
   119, 'BUS 119     ',       225, 1,    1,    1, 1,  1.02694981, -29.5018375, 1.08444, 1.00444, 1.08444, 1.00444
  2051, 'BUS 2051    ',        20, 1,    1,    1, 1,  1.00159779, -16.1870396,  1.4,  0.8,  1.4,  0.8
   120, 'BUS 120     ',       225, 1,    1,    1, 1,  1.05166038,  -15.901803, 1.08444, 1.00889, 1.08444, 1.00889
   121, 'BUS 121     ',       380, 1,    1,    1, 1,  1.04809244, -13.5762141, 1.10263, 1.02895, 1.10263, 1.02895
   122, 'BUS 122     ',       225, 1,    1,    1, 1,  1.03371202, -24.4313009, 1.08889, 0.933333, 1.08889, 0.933333
   123, 'BUS 123     ',       225, 1,    1,    1, 1,  1.02448071, -20.6158774, 1.08889, 0.933333, 1.08889, 0.933333
   124, 'BUS 124     ',        63, 1,    1,    1, 1,  1.07264692, -28.2815068, 1.07937, 0.920635, 1.07937, 0.920635
   125, 'BUS 125     ',       225, 2,    1,    1, 1,       1.034, -11.0182488, 1.07476, 0.95, 1.07476, 0.95
   126, 'BUS 126     ',       225, 1,    1,    1, 1,  1.05886575, -9.67090844, 1.09768,    1, 1.09768,    1
   127, 'BUS 127     ',       380, 1,    1,    1, 1,   1.0534005, -9.63558802, 1.10526, 1.05263, 1.10526, 1.05263
   128, 'BUS 128     ',       380, 1,    1,    1, 1,  1.05345569, -9.63199227, 1.10526, 1.05263, 1.10526, 1.05263
   129, 'BUS 129     ',       380, 1,    1,    1, 1,  1.05346235, -9.62850865, 1.10526, 1.05263, 1.10526, 1.05263
   130, 'BUS 130     ',       380, 1,    1,    1, 1,  1.05348025, -9.64413157, 1.10526, 1.05263, 1.10526, 1.05263
   131, 'BUS 131     ',       225, 1,    1,    1, 1,  1.04463475, -31.8804036, 1.09645, 0.986667, 1.09645, 0.986667
   132, 'BUS 132     ',       225, 1,    1,    1, 1,  1.04466247, -31.8527006, 1.09645, 0.986667, 1.09645, 0.986667
   133, 'BUS 133     ',       380, 1,    1,    1, 1,  1.04943382, -30.7682197, 1.10526, 1.03947, 1.10526, 1.03947
   134, 'BUS 134     ',       225, 1,    1,    1, 1,  1.02932303, -43.7529806, 1.08889, 0.968889, 1.08889, 0.968889
   135, 'BUS 135     ',       225, 1,    1,    1, 1,  1.05322278, -16.9207932, 1.08444, 1.00889, 1.08444, 1.00889
   136, 'BUS 136     ',       380, 1,    1,    1, 1,  1.04793054, -34.5469331, 1.10526, 1.03947, 1.10526, 1.03947
   137, 'BUS 137     ',       225, 1,    1,    1, 1,  1.04090791, -18.3030267, 1.08889, 0.933333, 1.08889, 0.933333
   138, 'BUS 138     ',       380, 1,    1,    1, 1,   1.0403026, -14.6191905, 1.10526, 1.03947, 1.10526, 1.03947
   140, 'BUS 140     ',       225, 1,    1,    1, 1,  1.04785941, -5.81393081, 1.08444, 1.00889, 1.08444, 1.00889
   141, 'BUS 141     ',       225, 1,    1,    1, 1,  1.04713663, -5.59951129, 1.08444, 1.00889, 1.08444, 1.00889
   142, 'BUS 142     ',       225, 1,    1,    1, 1,  1.03825771, -17.2895964, 1.08444, 1.00444, 1.08444, 1.00444
   143, 'BUS 143     ',       225, 1,    1,    1, 1,  1.04357747, -18.7041615, 1.08889, 0.933333, 1.08889, 0.933333
   144, 'BUS 144     ',       225, 1,    1,    1, 1,  1.04355185, -18.7086771, 1.08889, 0.933333, 1.08889, 0.933333
   145, 'BUS 145     ',       225, 1,    1,    1, 1,  1.04972043, -38.4186184, 1.08952, 1.00444, 1.08952, 1.00444
   146, 'BUS 146     ',       225, 1,    1,    1, 1,  1.04889424, -19.7144055, 1.09478,    1, 1.09478,    1
   147, 'BUS 147     ',       225, 1,    1,    1, 1,  1.04889232, -19.7143836, 1.09478,    1, 1.09478,    1
   148, 'BUS 148     ',       225, 1,    1,    1, 1,  1.05119071, -18.2332466, 1.08889,    1, 1.08889,    1
   149, 'BUS 149     ',       225, 1,    1,    1, 1,  1.05270739, -34.0423111, 1.08889, 1.00444, 1.08889, 1.00444
   150, 'BUS 150     ',       225, 1,    1,    1, 1,  1.03628049, -9.30143923, 1.08444, 1.00889, 1.08444, 1.00889
   151, 'BUS 151     ',       225, 1,    1,    1, 1,  1.05024615, -19.0576322, 1.08889,    1, 1.08889,    1
   152, 'BUS 152     ',       225, 1,    1,    1, 1,  1.04381179, -11.0161734, 1.08444, 1.00889, 1.08444, 1.00889
   153, 'BUS 153     ',       225, 1,    1,    1, 1,  1.04380088, -11.0190648, 1.08444, 1.00889, 1.08444, 1.00889
   154, 'BUS 154     ',       225, 1,    1,    1, 1,  1.04306522, -6.22228475, 1.08444, 1.00889, 1.08444, 1.00889
   155, 'BUS 155     ',       380, 1,    1,    1, 1,  1.04527756, -4.86384421, 1.10263, 1.02895, 1.10263, 1.02895
   156, 'BUS 156     ',       225, 1,    1,    1, 1,  1.01779227, -46.1312561, 1.08889, 0.888889, 1.08889, 0.888889
   157, 'BUS 157     ',       225, 1,    1,    1, 1,  1.05885154, -9.67076425, 1.09766,    1, 1.09766,    1
   158, 'BUS 158     ',       380, 1,    1,    1, 1,  1.05343984, -9.71002957, 1.10526, 1.05263, 1.10526, 1.05263
   159, 'BUS 159     ',       225, 1,    1,    1, 1,  1.03810341, -33.7186436, 1.08889, 0.986667, 1.08889, 0.986667
   160, 'BUS 160     ',       225, 1,    1,    1, 1,  1.05228533, -17.9863346, 1.08889,    1, 1.08889,    1
   161, 'BUS 161     ',       225, 1,    1,    1, 1,  1.05124322, -33.8015412, 1.08444, 1.00444, 1.08444, 1.00444
   162, 'BUS 162     ',       225, 1,    1,    1, 1,  1.05124322, -33.8015412, 1.08444, 1.00444, 1.08444, 1.00444
   163, 'BUS 163     ',       225, 1,    1,    1, 1,  1.05125059, -33.8017381, 1.08444, 1.00444, 1.08444, 1.00444
   164, 'BUS 164     ',       225, 1,    1,    1, 1,  1.05124218, -33.8015135, 1.08444, 1.00444, 1.08444, 1.00444
   165, 'BUS 165     ',       225, 1,    1,    1, 1,  1.02155415, -19.8388855, 1.08889, 0.933333, 1.08889, 0.933333
   166, 'BUS 166     ',       225, 1,    1,    1, 1,  1.02862428,   -28.96034, 1.08889, 0.986667, 1.08889, 0.986667
  2019, 'BUS 2019    ',        20, 1,    1,    1, 1, 0.961263558, -20.2495099,  1.4,  0.9,  1.4,  0.9
   167, 'BUS 167     ',       225, 1,    1,    1, 1,  1.04509756,  -19.645302, 1.08941,    1, 1.08941,    1
   168, 'BUS 168     ',       380, 1,    1,    1, 1,  1.04962397, -15.8950978, 1.10526, 1.05263, 1.10526, 1.05263
   169, 'BUS 169     ',       225, 2,    1,    1, 1,       1.065, -24.8986609,  1.1,  0.9,  1.1,  0.9
   170, 'BUS 170     ',       150, 1,    1,    1, 1,  1.02141398, -22.2635234, 1.08, 0.966667, 1.08, 0.966667
   171, 'BUS 171     ',       225, 1,    1,    1, 1,  1.03619839, -40.8869822, 1.08889, 1.00444, 1.08889, 1.00444
   172, 'BUS 172     ',       225, 1,    1,    1, 1,  1.03651623, -40.8372725, 1.08889, 1.00444, 1.08889, 1.00444
   173, 'BUS 173     ',       225, 1,    1,    1, 1,  1.01494319, -46.3423742, 1.08889, 0.888889, 1.08889, 0.888889
   181, 'BUS 181     ',       225, 1,    1,    1, 1,  1.05024862, -19.0356156, 1.08889,    1, 1.08889,    1
   182, 'BUS 182     ',       225, 1,    1,    1, 1,  1.03299656, -36.3585668, 1.08889, 0.986667, 1.08889, 0.986667
   183, 'BUS 183     ',       380, 1,    1,    1, 1,  1.04359513, -13.9192469, 1.10526, 1.03947, 1.10526, 1.03947
   184, 'BUS 184     ',       380, 1,    1,    1, 1,  1.04013214, -13.7300714, 1.10526, 1.03947, 1.10526, 1.03947
   185, 'BUS 185     ',       380, 1,    1,    1, 1,  1.04015033, -13.7337203, 1.10526, 1.03947, 1.10526, 1.03947
   186, 'BUS 186     ',       380, 1,    1,    1, 1,  1.04358655,  -13.930155, 1.10526, 1.03947, 1.10526, 1.03947
   187, 'BUS 187     ',       225, 1,    1,    1, 1,  1.03151341, -45.3907842, 1.08889, 0.924444, 1.08889, 0.924444
   188, 'BUS 188     ',       225, 1,    1,    1, 1,  1.04498229,  -37.598826, 1.08889, 0.986667, 1.08889, 0.986667
   189, 'BUS 189     ',       225, 1,    1,    1, 1,  1.03675304, -31.5354079, 1.08444, 1.00444, 1.08444, 1.00444
   190, 'BUS 190     ',       380, 1,    1,    1, 1,  1.04290358, -25.4957831, 1.10263, 1.04211, 1.10263, 1.04211
   191, 'BUS 191     ',       380, 1,    1,    1, 1,  1.04296248, -25.5006182, 1.10263, 1.04211, 1.10263, 1.04211
   192, 'BUS 192     ',       225, 1,    1,    1, 1,  1.03637178, -41.2331636, 1.08889, 1.00444, 1.08889, 1.00444
   193, 'BUS 193     ',       225, 1,    1,    1, 1,  1.04649206, -6.21730893, 1.08889, 0.977778, 1.08889, 0.977778
   194, 'BUS 194     ',       225, 1,    1,    1, 1,  1.04649206, -6.21730893, 1.08889, 0.977778, 1.08889, 0.977778
   195, 'BUS 195     ',       225, 1,    1,    1, 1,  1.02847573, -44.3382842, 1.08889, 0.968889, 1.08889, 0.968889
   196, 'BUS 196     ',       225, 1,    1,    1, 1,  1.03410731, -7.69153925, 1.08889, 0.933333, 1.08889, 0.933333
   197, 'BUS 197     ',       225, 1,    1,    1, 1,   1.0330817, -8.15990324, 1.08889, 0.933333, 1.08889, 0.933333
   198, 'BUS 198     ',       225, 1,    1,    1, 1,  1.04150541, -26.0654439, 1.08444, 1.00444, 1.08444, 1.00444
   199, 'BUS 199     ',       225, 1,    1,    1, 1,  1.05205842, -21.9682498, 1.08444, 1.00444, 1.08444, 1.00444
   200, 'BUS 200     ',       225, 1,    1,    1, 1,  1.03755574, -6.61250563, 1.08889, 0.977778, 1.08889, 0.977778
   201, 'BUS 201     ',       225, 1,    1,    1, 1,  1.04241006, -24.9412088, 1.08444, 1.00444, 1.08444, 1.00444
   202, 'BUS 202     ',       225, 1,    1,    1, 1,  1.03201187, -44.2344049, 1.08889, 0.951111, 1.08889, 0.951111
   203, 'BUS 203     ',       225, 1,    1,    1, 1,  1.03608558, -40.0215909, 1.08889, 1.00444, 1.08889, 1.00444
   204, 'BUS 204     ',       225, 1,    1,    1, 1,  1.04471086, -37.5003512, 1.08889, 0.986667, 1.08889, 0.986667
  2086, 'BUS 2086    ',        20, 1,    1,    1, 1, 0.996621657, -16.7356538,  1.4,  0.8,  1.4,  0.8
   205, 'BUS 205     ',       225, 1,    1,    1, 1,  1.04509955, -16.3140845, 1.08444, 1.00889, 1.08444, 1.00889
   206, 'BUS 206     ',       380, 1,    1,    1, 1,  1.04768569, -14.4079203, 1.10263, 1.02895, 1.10263, 1.02895
   207, 'BUS 207     ',       225, 1,    1,    1, 1,  1.03612184, -40.1303784, 1.08889, 1.00444, 1.08889, 1.00444
  1829, 'BUS 1829    ',       225, 2,    1,    1, 1,       1.022, -44.3479996, 1.07859, 0.95, 1.07859, 0.95
   208, 'BUS 208     ',       225, 1,    1,    1, 1,  1.02199257,  -44.347975, 1.08889, 0.888889, 1.08889, 0.888889
...
0 / END OF BUS DATA, BEGIN LOAD DATA
     1,  1, 1,    1,    1,       5.8,      -5.8, 0, 0, 0, 0, 1, 1, 0
     3,  1, 1,    1,    1,     142.5,     -13.4, 0, 0, 0, 0, 1, 1, 0
     5,  1, 1,    1,    1,      32.8,      -5.3, 0, 0, 0, 0, 1, 1, 0
     6,  1, 1,    1,    1,      40.2,         4, 0, 0, 0, 0, 1, 1, 0
    10,  1, 1,    1,    1,     148.8,      14.9, 0, 0, 0, 0, 1, 1, 0
    11,  1, 1,    1,    1,      25.6,         5, 0, 0, 0, 0, 1, 1, 0
    12,  1, 1,    1,    1,      39.1,       8.7, 0, 0, 0, 0, 1, 1, 0
    13,  1, 1,    1,    1,      70.5,      17.2, 0, 0, 0, 0, 1, 1, 0
    14,  1, 1,    1,    1,        36,      -4.2, 0, 0, 0, 0, 1, 1, 0
    17,  1, 1,    1,    1,      23.7,     -12.4, 0, 0, 0, 0, 1, 1, 0
    18,  1, 1,    1,    1,       5.9,      -4.8, 0, 0, 0, 0, 1, 1, 0
    19,  1, 1,    1,    1,        34,       3.7, 0, 0, 0, 0, 1, 1, 0
    20,  1, 1,    1,    1,       6.9,       0.8, 0, 0, 0, 0, 1, 1, 0
    21,  1, 1,    1,    1,       9.2,     -29.1, 0, 0, 0, 0, 1, 1, 0
    22,  1, 1,    1,    1,      67.7,      -3.6, 0, 0, 0, 0, 1, 1, 0
    23,  1, 1,    1,    1,      25.4,      -2.7, 0, 0, 0, 0, 1, 1, 0
    25,  1, 1,    1,    1,        64,       4.6, 0, 0, 0, 0, 1, 1, 0
    27,  1, 1,    1,    1,      71.6,      46.7, 0, 0, 0, 0, 1, 1, 0
    28,  1, 1,    1,    1,     105.4,       6.9, 0, 0, 0, 0, 1, 1, 0
    31,  1, 1,    1,    1,      21.7,       0.9, 0, 0, 0, 0, 1, 1, 0
    33,  1, 1,    1,    1,      68.9,       2.6, 0, 0, 0, 0, 1, 1, 0
    34,  1, 1,    1,    1,      50.6,      12.7, 0, 0, 0, 0, 1, 1, 0
    35,  1, 1,    1,    1,        17,       2.1, 0, 0, 0, 0, 1, 1, 0
    36,  1, 1,    1,    1,      38.2,       6.3, 0, 0, 0, 0, 1, 1, 0
    38,  1, 1,    1,    1,        89,       9.6, 0, 0, 0, 0, 1, 1, 0
    39,  1, 1,    1,    1,      70.9,      -2.3, 0, 0, 0, 0, 1, 1, 0
    40,  1, 1,    1,    1,     136.2,     -10.7, 0, 0, 0, 0, 1, 1, 0
    41,  1, 1,    1,    1,      64.6,      17.3, 0, 0, 0, 0, 1, 1, 0
    42,  1, 1,    1,    1,      13.4,       3.3, 0, 0, 0, 0, 1, 1, 0
    43,  1, 1,    1,    1,      33.3,       4.7, 0, 0, 0, 0, 1, 1, 0
    44,  1, 1,    1,    1,     211.6,      -1.3, 0, 0, 0, 0, 1, 1, 0
    45,  1, 1,    1,    1,      92.1,      -9.1, 0, 0, 0, 0, 1, 1, 0
    49,  1, 1,    1,    1,      63.7,      84.5, 0, 0, 0, 0, 1, 1, 0
    50,  1, 1,    1,    1,      10.4,       6.6, 0, 0, 0, 0, 1, 1, 0
    52,  1, 1,    1,    1,      68.7,      16.5, 0, 0, 0, 0, 1, 1, 0
    53,  1, 1,    1,    1,     101.2,      15.9, 0, 0, 0, 0, 1, 1, 0
    55,  1, 1,    1,    1,      28.9,      10.6, 0, 0, 0, 0, 1, 1, 0
    56,  1, 1,    1,    1,      28.2,       2.1, 0, 0, 0, 0, 1, 1, 0
  1827,  1, 1,    1,    1,     109.6,     -12.9, 0, 0, 0, 0, 1, 1, 0
    57,  1, 1,    1,    1,      27.3,     -10.9, 0, 0, 0, 0, 1, 1, 0
    59,  1, 1,    1,    1,      36.8,      20.3, 0, 0, 0, 0, 1, 1, 0
    60,  1, 1,    1,    1,      36.5,      30.8, 0, 0, 0, 0, 1, 1, 0
    62,  1, 1,    1,    1,       8.4,      -0.3, 0, 0, 0, 0, 1, 1, 0
    63,  1, 1,    1,    1,      13.2,      -6.3, 0, 0, 0, 0, 1, 1, 0
    64,  1, 1,    1,    1,      13.2,       3.3, 0, 0, 0, 0, 1, 1, 0
    65,  1, 1,    1,    1,      22.7,       2.5, 0, 0, 0, 0, 1, 1, 0
    66,  1, 1,    1,    1,      11.4,      -9.7, 0, 0, 0, 0, 1, 1, 0
    67,  1, 1,    1,    1,      10.2,      -1.3, 0, 0, 0, 0, 1, 1, 0
    71,  1, 1,    1,    1,      39.2,       2.8, 0, 0, 0, 0, 1, 1, 0
    72,  1, 1,    1,    1,      19.3,       3.3, 0, 0, 0, 0, 1, 1, 0
    75,  1, 1,    1,    1,     131.9,       3.2, 0, 0, 0, 0, 1, 1, 0
    78,  1, 1,    1,    1,      94.6,      -1.9, 0, 0, 0, 0, 1, 1, 0
    79,  1, 1,    1,    1,      -1.7,      -4.6, 0, 0, 0, 0, 1, 1, 0
    80,  1, 1,    1,    1,       3.6,      -7.2, 0, 0, 0, 0, 1, 1, 0
    81,  1, 1,    1,    1,      35.4,      10.9, 0, 0, 0, 0, 1, 1, 0
    82,  1, 1,    1,    1,      15.1,       0.7, 0, 0, 0, 0, 1, 1, 0
    83,  1, 1,    1,    1,      57.4,        18, 0, 0, 0, 0, 1, 1, 0
    84,  1, 1,    1,    1,      89.9,      -5.8, 0, 0, 0, 0, 1, 1, 0
    86,  1, 1,    1,    1,     239.8,      17.5, 0, 0, 0, 0, 1, 1, 0
    87,  1, 1,    1,    1,      35.5,        16, 0, 0, 0, 0, 1, 1, 0
    88,  1, 1,    1,    1,      76.1,        23, 0, 0, 0, 0, 1, 1, 0
    90,  1, 1,    1,    1,      21.3,        12, 0, 0, 0, 0, 1, 1, 0
    91,  1, 1,    1,    1,      11.2,      -5.2, 0, 0, 0, 0, 1, 1, 0
    96,  1, 1,    1,    1,      11.7,       1.3, 0, 0, 0, 0, 1, 1, 0
    97,  1, 1,    1,    1,       6.1,       1.4, 0, 0, 0, 0, 1, 1, 0
    98,  1, 1,    1,    1,      31.6,       2.6, 0, 0, 0, 0, 1, 1, 0
    99,  1, 1,    1,    1,      68.9,     -11.7, 0, 0, 0, 0, 1, 1, 0
   100,  1, 1,    1,    1,       0.2,        -0, 0, 0, 0, 0, 1, 1, 0
  1828,  1, 1,    1,    1,      30.1,       3.8, 0, 0, 0, 0, 1, 1, 0
   106,  1, 1,    1,    1,      12.1,       4.5, 0, 0, 0, 0, 1, 1, 0
   107,  1, 1,    1,    1,     106.1,      -0.3, 0, 0, 0, 0, 1, 1, 0
   109,  1, 1,    1,    1,      43.3,       8.4, 0, 0, 0, 0, 1, 1, 0
   110,  1, 1,    1,    1,      33.2,      -7.5, 0, 0, 0, 0, 1, 1, 0
   111,  1, 1,    1,    1,      99.5,     -12.4, 0, 0, 0, 0, 1, 1, 0
   112,  1, 1,    1,    1,     116.4,      -6.7, 0, 0, 0, 0, 1, 1, 0
   113,  1, 1,    1,    1,      65.7,      14.7, 0, 0, 0, 0, 1, 1, 0
   114,  1, 1,    1,    1,     107.2,      21.2, 0, 0, 0, 0, 1, 1, 0
   115,  1, 1,    1,    1,      56.9,      -2.7, 0, 0, 0, 0, 1, 1, 0
   119,  1, 1,    1,    1,     123.6,     -19.8, 0, 0, 0, 0, 1, 1, 0
   120,  1, 1,    1,    1,      33.3,     -21.3, 0, 0, 0, 0, 1, 1, 0
   122,  1, 1,    1,    1,       1.7,      -4.4, 0, 0, 0, 0, 1, 1, 0
   123,  1, 1,    1,    1,     140.3,      17.3, 0, 0, 0, 0, 1, 1, 0
   124,  1, 1,    1,    1,      33.7,      -1.8, 0, 0, 0, 0, 1, 1, 0
   126,  1, 1,    1,    1,      -1.9,      -5.4, 0, 0, 0, 0, 1, 1, 0
   134,  1, 1,    1,    1,      77.3,     -10.6, 0, 0, 0, 0, 1, 1, 0
   135,  1, 1,    1,    1,      28.1,       3.8, 0, 0, 0, 0, 1, 1, 0
   136,  1, 1,    1,    1,      -5.2,      -9.4, 0, 0, 0, 0, 1, 1, 0
   137,  1, 1,    1,    1,     106.4,         8, 0, 0, 0, 0, 1, 1, 0
   140,  1, 1,    1,    1,     113.7,      -8.3, 0, 0, 0, 0, 1, 1, 0
   141,  1, 1,    1,    1,      44.6,       0.5, 0, 0, 0, 0, 1, 1, 0
   142,  1, 1,    1,    1,     165.2,     -11.8, 0, 0, 0, 0, 1, 1, 0
   143,  1, 1,    1,    1,      29.2,       2.1, 0, 0, 0, 0, 1, 1, 0
   144,  1, 1,    1,    1,      32.8,       4.4, 0, 0, 0, 0, 1, 1, 0
   145,  1, 1,    1,    1,        19,     -18.1, 0, 0, 0, 0, 1, 1, 0
   148,  1, 1,    1,    1,      37.1,       5.6, 0, 0, 0, 0, 1, 1, 0
   149,  1, 1,    1,    1,        20,      -3.9, 0, 0, 0, 0, 1, 1, 0
   150,  1, 1,    1,    1,      38.1,       1.6, 0, 0, 0, 0, 1, 1, 0
   151,  1, 1,    1,    1,      24.8,      -1.8, 0, 0, 0, 0, 1, 1, 0
   156,  1, 1,    1,    1,     155.3,      26.5, 0, 0, 0, 0, 1, 1, 0
   159,  1, 1,    1,    1,      21.5,       4.4, 0, 0, 0, 0, 1, 1, 0
   160,  1, 1,    1,    1,      26.2,       2.1, 0, 0, 0, 0, 1, 1, 0
   164,  1, 1,    1,    1,      55.3,     -11.4, 0, 0, 0, 0, 1, 1, 0
   166,  1, 1,    1,    1,        30,      12.3, 0, 0, 0, 0, 1, 1, 0
   170,  1, 1,    1,    1,      17.8,       2.6, 0, 0, 0, 0, 1, 1, 0
   171,  1, 1,    1,    1,      25.3,      -3.2, 0, 0, 0, 0, 1, 1, 0
   172,  1, 1,    1,    1,      -3.7,        -2, 0, 0, 0, 0, 1, 1, 0
   173,  1, 1,    1,    1,      37.3,       0.7, 0, 0, 0, 0, 1, 1, 0
   181,  1, 1,    1,    1,     107.9,       3.9, 0, 0, 0, 0, 1, 1, 0
   182,  1, 1,    1,    1,      29.5,       6.8, 0, 0, 0, 0, 1, 1, 0
   187,  1, 1,    1,    1,      28.1,       -10, 0, 0, 0, 0, 1, 1, 0
   188,  1, 1,    1,    1,        -2,      -1.1, 0, 0, 0, 0, 1, 1, 0
   189,  1, 1,    1,    1,      65.8,      19.1, 0, 0, 0, 0, 1, 1, 0
   190,  1, 1,    1,    1,      -2.3,       1.2, 0, 0, 0, 0, 1, 1, 0
   191,  1, 1,    1,    1,      -2.3,       1.4, 0, 0, 0, 0, 1, 1, 0
   195,  1, 1,    1,    1,      83.6,      -8.6, 0, 0, 0, 0, 1, 1, 0
   198,  1, 1,    1,    1,      57.5,      10.2, 0, 0, 0, 0, 1, 1, 0
   199,  1, 1,    1,    1,     177.4,     -31.4, 0, 0, 0, 0, 1, 1, 0
   202,  1, 1,    1,    1,     124.2,      -3.2, 0, 0, 0, 0, 1, 1, 0
   203,  1, 1,    1,    1,      35.3,       1.9, 0, 0, 0, 0, 1, 1, 0
   204,  1, 1,    1,    1,      51.6,        -4, 0, 0, 0, 0, 1, 1, 0
   205,  1, 1,    1,    1,      16.9,      -1.8, 0, 0, 0, 0, 1, 1, 0
   207,  1, 1,    1,    1,      38.6,      -0.7, 0, 0, 0, 0, 1, 1, 0
   209,  1, 1,    1,    1,     171.1,      24.7, 0, 0, 0, 0, 1, 1, 0
   210,  1, 1,    1,    1,      46.3,      14.3, 0, 0, 0, 0, 1, 1, 0
   211,  1, 1,    1,    1,      58.6,       9.8, 0, 0, 0, 0, 1, 1, 0
   212,  1, 1,    1,    1,      14.6,      -0.7, 0, 0, 0, 0, 1, 1, 0
   213,  1, 1,    1,    1,      75.4,      25.3, 0, 0, 0, 0, 1, 1, 0
   216,  1, 1,    1,    1,      74.9,      -2.9, 0, 0, 0, 0, 1, 1, 0
   219,  1, 1,    1,    1,      55.6,      14.5, 0, 0, 0, 0, 1, 1, 0
   220,  1, 1,    1,    1,      -0.1,       0.8, 0, 0, 0, 0, 1, 1, 0
   221,  1, 1,    1,    1,        11,      -0.4, 0, 0, 0, 0, 1, 1, 0
   222,  1, 1,    1,    1,      39.3,       5.6, 0, 0, 0, 0, 1, 1, 0
   223,  1, 1,    1,    1,      21.6,       1.4, 0, 0, 0, 0, 1, 1, 0
   224,  1, 1,    1,    1,      16.7,       2.3, 0, 0, 0, 0, 1, 1, 0
   225,  1, 1,    1,    1,         2,      -1.4, 0, 0, 0, 0, 1, 1, 0
   227,  1, 1,    1,    1,     119.3,     -16.4, 0, 0, 0, 0, 1, 1, 0
   229,  1, 1,    1,    1,      72.1,         6, 0, 0, 0, 0, 1, 1, 0
   231,  1, 1,    1,    1,      16.1,       1.9, 0, 0, 0, 0, 1, 1, 0
   232,  1, 1,    1,    1,      14.9,       0.9, 0, 0, 0, 0, 1, 1, 0
   233,  1, 1,    1,    1,       6.1,       1.7, 0, 0, 0, 0, 1, 1, 0
   234,  1, 1,    1,    1,       1.1,       1.7, 0, 0, 0, 0, 1, 1, 0
   235,  1, 1,    1,    1,         2,      -3.9, 0, 0, 0, 0, 1, 1, 0
   236,  1, 1,    1,    1,       2.6,       2.4, 0, 0, 0, 0, 1, 1, 0
   237,  1, 1,    1,    1,       129,      -3.4, 0, 0, 0, 0, 1, 1, 0
   239,  1, 1,    1,    1,      25.8,       4.4, 0, 0, 0, 0, 1, 1, 0
   240,  1, 1,    1,    1,      31.9,       3.6, 0, 0, 0, 0, 1, 1, 0
   241,  1, 1,    1,    1,       4.3,        -1, 0, 0, 0, 0, 1, 1, 0
   243,  1, 1,    1,    1,      -3.4,      -9.5, 0, 0, 0, 0, 1, 1, 0
   244,  1, 1,    1,    1,      30.9,       7.4, 0, 0, 0, 0, 1, 1, 0
   245,  1, 1,    1,    1,      11.7,       0.6, 0, 0, 0, 0, 1, 1, 0
   246,  1, 1,    1,    1,     -18.3,     -23.8, 0, 0, 0, 0, 1, 1, 0
   247,  1, 1,    1,    1,        45,       5.3, 0, 0, 0, 0, 1, 1, 0
   251,  1, 1,    1,    1,       0.7,      -3.7, 0, 0, 0, 0, 1, 1, 0
   252,  1, 1,    1,    1,      92.9,        -6, 0, 0, 0, 0, 1, 1, 0
   253,  1, 1,    1,    1,       3.2,      -0.8, 0, 0, 0, 0, 1, 1, 0
   254,  1, 1,    1,    1,       3.9,         3, 0, 0, 0, 0, 1, 1, 0
   259,  1, 1,    1,    1,     106.5,      20.7, 0, 0, 0, 0, 1, 1, 0
   260,  1, 1,    1,    1,     157.5,     -28.3, 0, 0, 0, 0, 1, 1, 0
   261,  1, 1,    1,    1,      91.4,      -3.2, 0, 0, 0, 0, 1, 1, 0
   262,  1, 1,    1,    1,       5.5,      -1.3, 0, 0, 0, 0, 1, 1, 0
   263,  1, 1,    1,    1,       208,      14.9, 0, 0, 0, 0, 1, 1, 0
   267,  1, 1,    1,    1,     250.6,      22.2, 0, 0, 0, 0, 1, 1, 0
   270,  1, 1,    1,    1,      46.4,      27.4, 0, 0, 0, 0, 1, 1, 0
   272,  1, 1,    1,    1,     159.3,      40.7, 0, 0, 0, 0, 1, 1, 0
   273,  1, 1,    1,    1,     203.1,       3.9, 0, 0, 0, 0, 1, 1, 0
   274,  1, 1,    1,    1,        50,       8.3, 0, 0, 0, 0, 1, 1, 0
   275,  1, 1,    1,    1,      17.6,      -2.4, 0, 0, 0, 0, 1, 1, 0
   276,  1, 1,    1,    1,      22.7,      -2.9, 0, 0, 0, 0, 1, 1, 0
   279,  1, 1,    1,    1,      36.2,     -22.3, 0, 0, 0, 0, 1, 1, 0
   280,  1, 1,    1,    1,     169.5,      24.1, 0, 0, 0, 0, 1, 1, 0
   284,  1, 1,    1,    1,      25.8,      -6.7, 0, 0, 0, 0, 1, 1, 0
   285,  1, 1,    1,    1,      65.6,        -1, 0, 0, 0, 0, 1, 1, 0
   286,  1, 1,    1,    1,      52.2,       0.8, 0, 0, 0, 0, 1, 1, 0
   287,  1, 1,    1,    1,      19.7,      -0.8, 0, 0, 0, 0, 1, 1, 0
   288,  1, 1,    1,    1,      17.6,         2, 0, 0, 0, 0, 1, 1, 0
   289,  1, 1,    1,    1,      58.8,      -0.8, 0, 0, 0, 0, 1, 1, 0
   290,  1, 1,    1,    1,     108.4,     -13.2, 0, 0, 0, 0, 1, 1, 0
   295,  1, 1,    1,    1,     160.9,       1.6, 0, 0, 0, 0, 1, 1, 0
   297,  1, 1,    1,    1,      34.4,       6.6, 0, 0, 0, 0, 1, 1, 0
   303,  1, 1,    1,    1,     184.2,     -18.9, 0, 0, 0, 0, 1, 1, 0
   304,  1, 1,    1,    1,     -15.6,     -17.2, 0, 0, 0, 0, 1, 1, 0
   305,  1, 1,    1,    1,     -23.2,       0.6, 0, 0, 0, 0, 1, 1, 0
   306,  1, 1,    1,    1,      42.2,      -0.7, 0, 0, 0, 0, 1, 1, 0
   309,  1, 1,    1,    1,      96.9,     -28.2, 0, 0, 0, 0, 1, 1, 0
   310,  1, 1,    1,    1,      -1.7,      -3.4, 0, 0, 0, 0, 1, 1, 0
   311,  1, 1,    1,    1,     -10.7,      -3.4, 0, 0, 0, 0, 1, 1, 0
   312,  1, 1,    1,    1,      -7.2,      -9.3, 0, 0, 0, 0, 1, 1, 0
   313,  1, 1,    1,    1,      87.6,      -1.8, 0, 0, 0, 0, 1, 1, 0
   314,  1, 1,    1,    1,      32.2,       7.9, 0, 0, 0, 0, 1, 1, 0
   315,  1, 1,    1,    1,      28.6,       2.6, 0, 0, 0, 0, 1, 1, 0
   317,  1, 1,    1,    1,     141.6,      32.1, 0, 0, 0, 0, 1, 1, 0
   318,  1, 1,    1,    1,      30.1,        -3, 0, 0, 0, 0, 1, 1, 0
   319,  1, 1,    1,    1,       8.2,       4.4, 0, 0, 0, 0, 1, 1, 0
   320,  1, 1,    1,    1,      91.6,       8.9, 0, 0, 0, 0, 1, 1, 0
   321,  1, 1,    1,    1,       2.9,      -9.7, 0, 0, 0, 0, 1, 1, 0
   323,  1, 1,    1,    1,      94.6,      -5.5, 0, 0, 0, 0, 1, 1, 0
   324,  1, 1,    1,    1,      17.7,       6.3, 0, 0, 0, 0, 1, 1, 0
   325,  1, 1,    1,    1,      91.8,     -15.3, 0, 0, 0, 0, 1, 1, 0
   326,  1, 1,    1,    1,        29,      -1.9, 0, 0, 0, 0, 1, 1, 0
   327,  1, 1,    1,    1,      22.1,      -5.8, 0, 0, 0, 0, 1, 1, 0
...
0 / END OF LOAD DATA, BEGIN FIXED SHUNT DATA
  2050, 1, 1,       0,     -64
    49, 1, 1,       0,     -80
    72, 1, 1,       0,     -80
  2051, 1, 1,       0,     -64
  2019, 1, 1,       0,     -64
  2086, 1, 1,       0,     -64
  2029, 1, 1,       0,     -64
  2030, 1, 1,       0,     -64
  2025, 1, 1,       0,     -58
  2031, 1, 1,       0,    -128
  2032, 1, 1,       0,     -58
  2046, 1, 1,       0,     -58
  2062, 1, 1,       0,     -64
  2047, 1, 1,       0,     -64
   343, 1, 1,       0,     -80
  2014, 1, 1,       0,     -80
  2020, 1, 1,       0,     -64
  2033, 1, 1,       0,     -64
  2021, 1, 1,       0,     -64
  2015, 1, 1,       0,     -64
  2052, 1, 1,       0,     -64
  2043, 1, 1,       0,     -64
  2059, 1, 1,       0,     -64
   805, 1, 1,       0,    -214
  2063, 1, 1,       0,     -58
  2065, 1, 1,       0,     -60
  2078, 1, 1,       0,     -60
   848, 1, 1,       0,     -80
   892, 1, 1,       0,     -80
  2053, 1, 1,       0,     -60
  2054, 1, 1,       0,     -60
  1105, 1, 1,       0,     -80
  2048, 1, 1,       0,     -64
  2049, 1, 1,       0,     -58
  2038, 1, 1,       0,     -64
  2039, 1, 1,       0,     -64
  2040, 1, 1,       0,     -54
  2055, 1, 1,       0,     -64
  2041, 1, 1,       0,     -60
  2042, 1, 1,       0,     -58
  2060, 1, 1,       0,     -58
  2073, 1, 1,       0,     -60
  2056, 1, 1,       0,     -64
  2057, 1, 1,       0,     -56
  2079, 1, 1,       0,     -60
0 / END OF FIXED SHUNT DATA, BEGIN GENERATOR DATA
  1268,  1,      44.5,     -1.55,        27,        -9,    1.027, 0,     100, 0, 1, 0, 0, 1, 1, 100,        45,        44, 1, 1, 0, 1, 0, 1, 0, 1, 0, 1
  1268,  2,      44.5,     -1.55,        27,        -9,    1.027, 0,     100, 0, 1, 0, 0, 1, 1, 100,        45,        44, 1, 1, 0, 1, 0, 1, 0, 1, 0, 1
  1356,  1,        21,      -0.4,         7,       -12,    1.046, 0,     100, 0, 1, 0, 0, 1, 1, 100,        22,       4.4, 1, 1, 0, 1, 0, 1, 0, 1, 0, 1
    89,  1,        24,     -1.48,        13,        -9,     1.02, 0,     100, 0, 1, 0, 0, 1, 1, 100,        25,         5, 1, 1, 0, 1, 0, 1, 0, 1, 0, 1
   125,  1,        22,     -0.19,         8,       -17,    1.034, 0,     100, 0, 1, 0, 0, 1, 1, 100,      23.4,      4.68, 1, 1, 0, 1, 0, 1, 0, 1, 0, 1
   908,  1,        19,       1.9,         2,       1.9,    1.035, 0,     100, 0, 1, 0, 0, 1, 1, 100,        20,         4, 1, 1, 0, 1, 0, 1, 0, 1, 0, 1
   817,  1,         0,         0,         1,       0.9,    1.039, 0,     100, 0, 1, 0, 0, 1, 0, 100,        12,       2.4, 1, 1, 0, 1, 0, 1, 0, 1, 0, 1
   817,  2,        13,       0.9,         1,       0.9,    1.039, 0,     100, 0, 1, 0, 0, 1, 1, 100,        14,       2.8, 1, 1, 0, 1, 0, 1, 0, 1, 0, 1
   817,  3,         0,         0,         1,       0.9,    1.039, 0,     100, 0, 1, 0, 0, 1, 0, 100,        12,       2.4, 1, 1, 0, 1, 0, 1, 0, 1, 0, 1
  1335,  1,        28,     -0.87,        10,       -10,    1.021, 0,     100, 0, 1, 0, 0, 1, 1, 100,        30,         6, 1, 1, 0, 1, 0, 1, 0, 1, 0, 1
   396,  1,        10,         1,         5,         1,    1.015, 0,     100, 0, 1, 0, 0, 1, 1, 100,        11,       2.2, 1, 1, 0, 1, 0, 1, 0, 1, 0, 1
   396,  2,        10,         1,         5,         1,    1.015, 0,     100, 0, 1, 0, 0, 1, 1, 100,        11,       2.2, 1, 1, 0, 1, 0, 1, 0, 1, 0, 1
   975,  1,         7,       -15,        15,       -15,     1.05, 0,     100, 0, 1, 0, 0, 1, 1, 100,        35,         7, 1, 1, 0, 1, 0, 1, 0, 1, 0, 1
   858,  1,     16.92,         0,         0,         0,    1.048, 0,     100, 0, 1, 0, 0, 1, 1, 100,      55.4,     11.08, 1, 1, 0, 1, 0, 1, 0, 1, 0, 1
   921,  1,        40,       -20,        25,       -20,    1.045, 0,     100, 0, 1, 0, 0, 1, 1, 100,        42,       8.4, 1, 1, 0, 1, 0, 1, 0, 1, 0, 1
   921,  2,        40,       -20,        25,       -20,    1.045, 0,     100, 0, 1, 0, 0, 1, 1, 100,        42,       8.4, 1, 1, 0, 1, 0, 1, 0, 1, 0, 1
  1255,  1,     15.61,    -24.36,      26.1,    -24.36,    1.046, 0,     100, 0, 1, 0, 0, 1, 1, 100,        87,      17.4, 1, 1, 0, 1, 0, 1, 0, 1, 0, 1
   169,  1,         8,      0.49,       8.3,      -8.3,    1.065, 0,     100, 0, 1, 0, 0, 1, 1, 100,       8.3,      1.66, 1, 1, 0, 1, 0, 1, 0, 1, 0, 1
   448,  1,      0.85,         0,         0,         0,     1.04, 0,     100, 0, 1, 0, 0, 1, 1, 100,         4,         0, 1, 1, 0, 1, 0, 1, 0, 1, 0, 1
   241,  1,       2.6,     -0.21,         5,        -5,    1.011, 0,     100, 0, 1, 0, 0, 1, 1, 100,        13,       2.6, 1, 1, 0, 1, 0, 1, 0, 1, 0, 1
   241,  2,       2.6,     -0.21,         5,        -5,    1.011, 0,     100, 0, 1, 0, 0, 1, 1, 100,        13,       2.6, 1, 1, 0, 1, 0, 1, 0, 1, 0, 1
   241,  3,       2.6,     -0.21,         5,        -5,    1.011, 0,     100, 0, 1, 0, 0, 1, 1, 100,        13,       2.6, 1, 1, 0, 1, 0, 1, 0, 1, 0, 1
   241,  4,       2.6,     -0.21,         5,        -5,    1.011, 0,     100, 0, 1, 0, 0, 1, 1, 100,        13,       2.6, 1, 1, 0, 1, 0, 1, 0, 1, 0, 1
   270,  1,        48,      0.15,        27,        -9,    1.029, 0,     100, 0, 1, 0, 0, 1, 1, 100,        50,        10, 1, 1, 0, 1, 0, 1, 0, 1, 0, 1
   885,  1,      0.29,         0,         0,         0,    1.029, 0,     100, 0, 1, 0, 0, 1, 1, 100,         8,       1.6, 1, 1, 0, 1, 0, 1, 0, 1, 0, 1
   885,  2,      0.29,         0,         0,         0,    1.029, 0,     100, 0, 1, 0, 0, 1, 1, 100,         8,       1.6, 1, 1, 0, 1, 0, 1, 0, 1, 0, 1
   876,  1,     -1.22,         0,         0,         0,     1.04, 0,     100, 0, 1, 0, 0, 1, 1, 100,        54,      10.8, 1, 1, 0, 1, 0, 1, 0, 1, 0, 1
    46,  1,        28,        -4,        10,        -4,    1.038, 0,     100, 0, 1, 0, 0, 1, 1, 100,        30,         6, 1, 1, 0, 1, 0, 1, 0, 1, 0, 1
   803,  1,        13,     -0.14,      4.63,     -5.56,    1.036, 0,     100, 0, 1, 0, 0, 1, 1, 100,      13.8,      2.76, 1, 1, 0, 1, 0, 1, 0, 1, 0, 1
   356,  1,     11.82,    -11.59,     12.42,    -11.59,    1.047, 0,     100, 0, 1, 0, 0, 1, 1, 100,      41.4,      8.28, 1, 1, 0, 1, 0, 1, 0, 1, 0, 1
   100,  1,        26,     -3.91,        59,       -26,    1.036, 0,     100, 0, 1, 0, 0, 1, 1, 100,       130,        26, 1, 1, 0, 1, 0, 1, 0, 1, 0, 1
   707,  1,        20,     -3.74,         8,        -8,     1.05, 0,     100, 0, 1, 0, 0, 1, 1, 100,        21,       4.2, 1, 1, 0, 1, 0, 1, 0, 1, 0, 1
   973,  1,        51,       -10,        17,       -10,    1.039, 0,     100, 0, 1, 0, 0, 1, 1, 100,        53,      10.6, 1, 1, 0, 1, 0, 1, 0, 1, 0, 1
  1118,  2,      2.77,         0,         0,         0,     1.03, 0,     100, 0, 1, 0, 0, 1, 1, 100,        55,        11, 1, 1, 0, 1, 0, 1, 0, 1, 0, 1
   897,  1,     17.92,        -3,        10,        -3,    1.027, 0,     100, 0, 1, 0, 0, 1, 1, 100,        27,       5.4, 1, 1, 0, 1, 0, 1, 0, 1, 0, 1
   897,  2,     17.92,        -3,        10,        -3,    1.027, 0,     100, 0, 1, 0, 0, 1, 1, 100,        27,       5.4, 1, 1, 0, 1, 0, 1, 0, 1, 0, 1
    58,  2,         0,         0,         2,       1.9,    1.037, 0,     100, 0, 1, 0, 0, 1, 0, 100,         6,       1.2, 1, 1, 0, 1, 0, 1, 0, 1, 0, 1
    82,  1,       1.3,         0,         0,         0,    1.025, 0,     100, 0, 1, 0, 0, 1, 1, 100,      25.3,      5.06, 1, 1, 0, 1, 0, 1, 0, 1, 0, 1
   474,  1,     13.22,       -13,        10,       -13,    1.036, 0,     100, 0, 1, 0, 0, 1, 1, 100,        52,      10.4, 1, 1, 0, 1, 0, 1, 0, 1, 0, 1
  1221,  1,      11.6,      3.43,        35,       -35,    1.056, 0,     100, 0, 1, 0, 0, 1, 1, 100,        58,      11.6, 1, 1, 0, 1, 0, 1, 0, 1, 0, 1
   355,  1,        59,       -40,        40,       -40,     1.05, 0,     100, 0, 1, 0, 0, 1, 1, 100,        62,      12.4, 1, 1, 0, 1, 0, 1, 0, 1, 0, 1
   471,  1,      0.91,         0,         1,         0,    1.037, 0,     100, 0, 1, 0, 0, 1, 1, 100,        78,      15.6, 1, 1, 0, 1, 0, 1, 0, 1, 0, 1
  1321,  1,        10,       0.9,         1,       0.9,    1.039, 0,     100, 0, 1, 0, 0, 1, 1, 100,        11,       2.2, 1, 1, 0, 1, 0, 1, 0, 1, 0, 1
  1321,  2,         2,     -0.01,       0.1,      -0.1,    1.039, 0,     100, 0, 1, 0, 0, 1, 1, 100,       2.5,         0, 1, 1, 0, 1, 0, 1, 0, 1, 0, 1
  1829,  2,      0.16,      0.06,         8,        -8,    1.022, 0,     100, 0, 1, 0, 0, 1, 1, 100,      23.5,       4.7, 1, 1, 0, 1, 0, 1, 0, 1, 0, 1
  1005,  1,        37,       -19,        19,       -19,     1.02, 0,     100, 0, 1, 0, 0, 1, 1, 100,        39,       7.8, 1, 1, 0, 1, 0, 1, 0, 1, 0, 1
    14,  1,      2.38,         0,         0,         0,    1.029, 0,     100, 0, 1, 0, 0, 1, 1, 100,      27.6,      5.52, 1, 1, 0, 1, 0, 1, 0, 1, 0, 1
    14,  2,      0.64,         0,         0,         0,    1.029, 0,     100, 0, 1, 0, 0, 1, 1, 100,        24,       4.8, 1, 1, 0, 1, 0, 1, 0, 1, 0, 1
  1628,  2,       200,    -60.27,     155.3,   -217.55,     0.95, 0,     100, 0, 1, 0, 0, 1, 1, 100,       670,       200, 1, 1, 0, 1, 0, 1, 0, 1, 0, 1
  1629,  1,    450.03,    -42.82,    231.39,   -190.58,     0.95, 0,     100, 0, 1, 0, 0, 1, 1, 100,       700,       140, 1, 1, 0, 1, 0, 1, 0, 1, 0, 1
  1844,  1,        26,    -13.69,     24.62,    -15.38,    0.885, 0,     100, 0, 1, 0, 0, 1, 1, 100,        27,       5.4, 1, 1, 0, 1, 0, 1, 0, 1, 0, 1
  1630,  1,        83,      8.77,     43.86,      -8.5,    0.928, 0,     100, 0, 1, 0, 0, 1, 1, 100,        86,      17.2, 1, 1, 0, 1, 0, 1, 0, 1, 0, 1
  1631,  1,       9.8,      3.09,     22.19,     -9.73,     0.93, 0,     100, 0, 1, 0, 0, 1, 1, 100,        49,       9.8, 1, 1, 0, 1, 0, 1, 0, 1, 0, 1
  1846,  1,        30,     -1.12,      8.36,     -8.36,    1.034, 0,     100, 0, 1, 0, 0, 1, 1, 100,        32,       6.4, 1, 1, 0, 1, 0, 1, 0, 1, 0, 1
  1632,  1,        30,     -1.12,      8.36,     -8.36,    1.034, 0,     100, 0, 1, 0, 0, 1, 1, 100,        32,       6.4, 1, 1, 0, 1, 0, 1, 0, 1, 0, 1
  1847,  1,        30,     -1.06,      8.15,     -8.57,    1.034, 0,     100, 0, 1, 0, 0, 1, 1, 100,        32,       6.4, 1, 1, 0, 1, 0, 1, 0, 1, 0, 1
  1848,  1,        30,     -1.06,      8.15,     -8.57,    1.034, 0,     100, 0, 1, 0, 0, 1, 1, 100,        32,       6.4, 1, 1, 0, 1, 0, 1, 0, 1, 0, 1
  1852,  1,        88,     16.22,     54.57,    -35.43,     1.01, 0,     100, 0, 1, 0, 0, 1, 1, 100,        92,      18.4, 1, 1, 0, 1, 0, 1, 0, 1, 0, 1
  1854,  1,        88,     28.45,     56.48,    -33.52,    1.031, 0,     100, 0, 1, 0, 0, 1, 1, 100,        92,      18.4, 1, 1, 0, 1, 0, 1, 0, 1, 0, 1
  1633,  1,       912,     55.65,    421.39,   -376.62,        1, 0,     100, 0, 1, 0, 0, 1, 1, 100,    945.08,    255.07, 1, 1, 0, 1, 0, 1, 0, 1, 0, 1
  1634,  1,       944,     57.67,    428.83,   -369.21,    0.999, 0,     100, 0, 1, 0, 0, 1, 1, 100,    978.04,    288.05, 1, 1, 0, 1, 0, 1, 0, 1, 0, 1
  1635,  1,       942,     57.52,    428.07,   -369.92,    0.999, 0,     100, 0, 1, 0, 0, 1, 1, 100,    976.08,    256.08, 1, 1, 0, 1, 0, 1, 0, 1, 0, 1
  1636,  1,       910,     55.51,    420.86,   -377.13,        1, 0,     100, 0, 1, 0, 0, 1, 1, 100,    943.08,    253.07, 1, 1, 0, 1, 0, 1, 0, 1, 0, 1
  1637,  1,       156,     -8.21,    153.03,    -90.23,    0.954, 0,     100, 0, 1, 0, 0, 1, 1, 100,       252,       156, 1, 1, 0, 1, 0, 1, 0, 1, 0, 1
  1638,  1,       154,     -8.17,    152.44,    -90.81,    0.954, 0,     100, 0, 1, 0, 0, 1, 1, 100,       250,       154, 1, 1, 0, 1, 0, 1, 0, 1, 0, 1
  1639,  1,       154,     -3.53,    105.68,    -58.28,    0.977, 0,     100, 0, 1, 0, 0, 1, 1, 100,       250,       154, 1, 1, 0, 1, 0, 1, 0, 1, 0, 1
  1640,  1,       122,    -16.51,    228.81,   -159.91,    0.983, 0,     100, 0, 1, 0, 0, 1, 1, 100,       305,       122, 1, 1, 0, 1, 0, 1, 0, 1, 0, 1
  1641,  1,        89,     -2.78,     94.32,    -74.64,    0.986, 0,     100, 0, 1, 0, 0, 1, 1, 100,       155,        89, 1, 1, 0, 1, 0, 1, 0, 1, 0, 1
  1642,  1,      11.6,     -3.44,     21.65,    -18.77,    0.988, 0,     100, 0, 1, 0, 0, 1, 1, 100,        58,      11.6, 1, 1, 0, 1, 0, 1, 0, 1, 0, 1
  1643,  1,     37.93,     -1.89,     16.01,    -10.66,    0.988, 0,     100, 0, 1, 0, 0, 1, 1, 100,        58,      11.6, 1, 1, 0, 1, 0, 1, 0, 1, 0, 1
  1855,  1,      11.6,     -3.39,     21.47,    -18.95,    0.988, 0,     100, 0, 1, 0, 0, 1, 1, 100,        58,      11.6, 1, 1, 0, 1, 0, 1, 0, 1, 0, 1
  1644,  1,     38.05,      -1.9,     16.05,    -10.62,    0.988, 0,     100, 0, 1, 0, 0, 1, 1, 100,        58,      11.6, 1, 1, 0, 1, 0, 1, 0, 1, 0, 1
  1645,  1,     37.39,     -1.84,     15.81,    -10.86,    0.988, 0,     100, 0, 1, 0, 0, 1, 1, 100,        58,      11.6, 1, 1, 0, 1, 0, 1, 0, 1, 0, 1
  1646,  1,       133,      8.92,    146.45,    -90.18,     0.95, 0,     100, 0, 1, 0, 0, 1, 1, 100,       263,       133, 1, 1, 0, 1, 0, 1, 0, 1, 0, 1
  1647,  1,        43,     11.27,     50.67,    -38.09,    1.045, 0,     100, 0, 1, 0, 0, 1, 1, 100,     44.96,      8.99, 1, 1, 0, 1, 0, 1, 0, 1, 0, 1
  1861,  1,        30,      2.78,     19.75,    -16.25,    1.048, 0,     100, 0, 1, 0, 0, 1, 1, 100,        32,       6.4, 1, 1, 0, 1, 0, 1, 0, 1, 0, 1
  1648,  1,       903,     119.3,    530.99,   -158.23,    0.963, 0,     100, 0, 1, 0, 0, 1, 1, 100,    936.29,    266.29, 1, 1, 0, 1, 0, 1, 0, 1, 0, 1
  1649,  1,       910,      9.35,    533.69,   -156.07,    0.946, 0,     100, 0, 1, 0, 0, 1, 1, 100,    942.82,    272.82, 1, 1, 0, 1, 0, 1, 0, 1, 0, 1
  1650,  1,       892,    122.18,    537.68,   -152.82,    0.964, 0,     100, 0, 1, 0, 0, 1, 1, 100,    924.28,    274.28, 1, 1, 0, 1, 0, 1, 0, 1, 0, 1
  1651,  1,       890,      9.21,    529.89,   -160.89,    0.946, 0,     100, 0, 1, 0, 0, 1, 1, 100,     922.8,     272.8, 1, 1, 0, 1, 0, 1, 0, 1, 0, 1
  1652,  1,       318,    -97.83,    681.04,      -153,    0.945, 0,     100, 0, 1, 0, 0, 1, 1, 100,      1308,       318, 1, 1, 0, 1, 0, 1, 0, 1, 0, 1
  1862,  1,       318,    -73.74,    681.03,      -153,    0.948, 0,     100, 0, 1, 0, 0, 1, 1, 100,      1308,       318, 1, 1, 0, 1, 0, 1, 0, 1, 0, 1
  1653,  1,        33,     -0.83,      6.08,     -1.92,    1.029, 0,     100, 0, 1, 0, 0, 1, 1, 100,        35,         7, 1, 1, 0, 1, 0, 1, 0, 1, 0, 1
  1654,  1,        33,     -0.86,      6.21,     -1.79,    1.029, 0,     100, 0, 1, 0, 0, 1, 1, 100,        35,         7, 1, 1, 0, 1, 0, 1, 0, 1, 0, 1
  1655,  1,        33,     -0.86,      6.21,     -1.79,    1.029, 0,     100, 0, 1, 0, 0, 1, 1, 100,        35,         7, 1, 1, 0, 1, 0, 1, 0, 1, 0, 1
  1656,  1,        33,     -0.83,      6.11,     -1.89,    1.029, 0,     100, 0, 1, 0, 0, 1, 1, 100,        35,         7, 1, 1, 0, 1, 0, 1, 0, 1, 0, 1
  1657,  1,        33,     -0.83,      6.11,     -1.89,    1.029, 0,     100, 0, 1, 0, 0, 1, 1, 100,        35,         7, 1, 1, 0, 1, 0, 1, 0, 1, 0, 1
  1658,  1,        33,     -0.83,      6.11,     -1.89,    1.029, 0,     100, 0, 1, 0, 0, 1, 1, 100,        35,         7, 1, 1, 0, 1, 0, 1, 0, 1, 0, 1
  1863,  1,        35,      1.08,     18.45,    -13.16,    0.979, 0,     100, 0, 1, 0, 0, 1, 1, 100,     36.97,      7.39, 1, 1, 0, 1, 0, 1, 0, 1, 0, 1
  1659,  1,        35,      1.08,     18.45,    -13.16,    0.979, 0,     100, 0, 1, 0, 0, 1, 1, 100,     36.97,      7.39, 1, 1, 0, 1, 0, 1, 0, 1, 0, 1
  1660,  1,        35,      1.08,     18.45,    -11.35,    0.979, 0,     100, 0, 1, 0, 0, 1, 1, 100,     36.97,      7.39, 1, 1, 0, 1, 0, 1, 0, 1, 0, 1
  1661,  1,        35,      1.05,     18.11,     -11.7,    0.979, 0,     100, 0, 1, 0, 0, 1, 1, 100,     36.97,      7.39, 1, 1, 0, 1, 0, 1, 0, 1, 0, 1
  1662,  1,        35,      1.05,     18.21,    -13.41,    0.978, 0,     100, 0, 1, 0, 0, 1, 1, 100,     36.97,      7.39, 1, 1, 0, 1, 0, 1, 0, 1, 0, 1
  1663,  1,        35,      1.09,     18.55,    -13.05,    0.978, 0,     100, 0, 1, 0, 0, 1, 1, 100,     36.97,      7.39, 1, 1, 0, 1, 0, 1, 0, 1, 0, 1
  1865,  1,        19,     -1.21,     12.32,     -7.68,    0.942, 0,     100, 0, 1, 0, 0, 1, 1, 100,        20,         4, 1, 1, 0, 1, 0, 1, 0, 1, 0, 1
  1866,  1,        29,      0.99,     17.85,    -13.79,    0.978, 0,     100, 0, 1, 0, 0, 1, 1, 100,     30.98,       6.2, 1, 1, 0, 1, 0, 1, 0, 1, 0, 1
  1664,  1,        29,      0.99,     17.85,    -13.79,    0.978, 0,     100, 0, 1, 0, 0, 1, 1, 100,     30.98,       6.2, 1, 1, 0, 1, 0, 1, 0, 1, 0, 1
  1665,  1,        29,         1,     18.01,    -13.62,    0.978, 0,     100, 0, 1, 0, 0, 1, 1, 100,     30.98,       6.2, 1, 1, 0, 1, 0, 1, 0, 1, 0, 1
  1867,  1,        29,         1,     18.01,    -13.62,    0.978, 0,     100, 0, 1, 0, 0, 1, 1, 100,     30.98,       6.2, 1, 1, 0, 1, 0, 1, 0, 1, 0, 1
  1666,  1,        29,      0.99,     17.89,    -13.75,    0.979, 0,     100, 0, 1, 0, 0, 1, 1, 100,     30.98,       6.2, 1, 1, 0, 1, 0, 1, 0, 1, 0, 1
  1868,  1,        29,      0.98,     17.74,    -13.91,    0.979, 0,     100, 0, 1, 0, 0, 1, 1, 100,     30.98,       6.2, 1, 1, 0, 1, 0, 1, 0, 1, 0, 1
  1667,  1,      1283,      7.98,    656.06,   -184.89,    0.947, 0,     100, 0, 1, 0, 0, 1, 1, 100,      1330,       337, 1, 1, 0, 1, 0, 1, 0, 1, 0, 1
  1668,  1,   1114.28,     16.37,    656.92,    -183.9,    0.952, 0,     100, 0, 1, 0, 0, 1, 1, 100,      1360,       367, 1, 1, 0, 1, 0, 1, 0, 1, 0, 1
  1669,  1,   1088.81,     14.75,    648.03,    -192.8,    0.953, 0,     100, 0, 1, 0, 0, 1, 1, 100,      1360,       367, 1, 1, 0, 1, 0, 1, 0, 1, 0, 1
  1670,  1,      1.45,    -75.51,    281.46,   -103.91,    0.916, 0,     100, 0, 1, 0, 0, 1, 1, 100,       1.5,       1.4, 1, 1, 0, 1, 0, 1, 0, 1, 0, 1
  1873,  1,        48,     45.94,     94.03,    -45.97,    1.003, 0,     100, 0, 1, 0, 0, 1, 1, 100,       240,        48, 1, 1, 0, 1, 0, 1, 0, 1, 0, 1
  1874,  1,        48,     46.96,     95.11,    -44.89,    1.003, 0,     100, 0, 1, 0, 0, 1, 1, 100,       240,        48, 1, 1, 0, 1, 0, 1, 0, 1, 0, 1
  1671,  1,       910,     -1.46,     524.6,    -107.2,     0.95, 0,     100, 0, 1, 0, 0, 1, 1, 100,    942.72,    232.72, 1, 1, 0, 1, 0, 1, 0, 1, 0, 1
  1673,  1,       920,      -1.3,    511.64,    -99.08,     0.95, 0,     100, 0, 1, 0, 0, 1, 1, 100,    953.74,    243.74, 1, 1, 0, 1, 0, 1, 0, 1, 0, 1
  1674,  1,       919,     -7.76,    555.41,    -99.32,    0.949, 0,     100, 0, 1, 0, 0, 1, 1, 100,    952.74,    242.74, 1, 1, 0, 1, 0, 1, 0, 1, 0, 1
  1675,  1,    598.27,     -35.9,    682.28,   -126.36,    0.944, 0,     100, 0, 1, 0, 0, 1, 1, 100,      1503,       403, 1, 1, 0, 1, 0, 1, 0, 1, 0, 1
  1676,  1,     505.8,      1.41,    687.17,   -121.66,     0.95, 0,     100, 0, 1, 0, 0, 1, 1, 100,      1503,       403, 1, 1, 0, 1, 0, 1, 0, 1, 0, 1
  1875,  1,      1446,     48.05,    409.45,   -352.29,    0.973, 0,     100, 0, 1, 0, 0, 1, 1, 100,      1498,       398, 1, 1, 0, 1, 0, 1, 0, 1, 0, 1
  1677,  1,      1446,     30.08,    409.42,   -352.33,    0.971, 0,     100, 0, 1, 0, 0, 1, 1, 100,      1498,       398, 1, 1, 0, 1, 0, 1, 0, 1, 0, 1
  2022,  1,        15,     20.78,     51.88,    -38.44,    1.077, 0,     100, 0, 1, 0, 0, 1, 1, 100,        75,        15, 1, 1, 0, 1, 0, 1, 0, 1, 0, 1
  1876,  1,        15,     20.78,     51.88,    -38.44,    1.077, 0,     100, 0, 1, 0, 0, 1, 1, 100,        75,        15, 1, 1, 0, 1, 0, 1, 0, 1, 0, 1
  1877,  1,        15,     20.78,     51.88,    -38.44,    1.077, 0,     100, 0, 1, 0, 0, 1, 1, 100,        75,        15, 1, 1, 0, 1, 0, 1, 0, 1, 0, 1
  1878,  1,        15,     20.78,     51.88,    -38.44,    1.077, 0,     100, 0, 1, 0, 0, 1, 1, 100,        75,        15, 1, 1, 0, 1, 0, 1, 0, 1, 0, 1
  1678,  1,        91,     -0.46,    104.12,     -61.4,    0.957, 0,     100, 0, 1, 0, 0, 1, 1, 100,        95,       8.5, 1, 1, 0, 1, 0, 1, 0, 1, 0, 1
  1679,  1,        91,     -0.45,    103.94,    -61.58,    0.957, 0,     100, 0, 1, 0, 0, 1, 1, 100,        95,       8.5, 1, 1, 0, 1, 0, 1, 0, 1, 0, 1
  1680,  1,       4.2,    -10.65,     86.67,    -10.65,    0.961, 0,     100, 0, 1, 0, 0, 1, 1, 100,     148.2,       4.2, 1, 1, 0, 1, 0, 1, 0, 1, 0, 1
  1681,  1,       180,      -3.8,    220.22,    -59.17,     0.95, 0,     100, 0, 1, 0, 0, 1, 1, 100,       685,       180, 1, 1, 0, 1, 0, 1, 0, 1, 0, 1
  1682,  1,       588,    -56.14,    330.28,   -165.24,    0.928, 0,     100, 0, 1, 0, 0, 1, 1, 100,       610,       310, 1, 1, 0, 1, 0, 1, 0, 1, 0, 1
  1683,  1,       588,    -45.22,    297.67,   -191.83,    0.933, 0,     100, 0, 1, 0, 0, 1, 1, 100,       610,       310, 1, 1, 0, 1, 0, 1, 0, 1, 0, 1
  1684,  1,       205,    -45.01,    254.82,   -293.65,    0.954, 0,     100, 0, 1, 0, 0, 1, 1, 100,       700,       205, 1, 1, 0, 1, 0, 1, 0, 1, 0, 1
  1881,  1,        48,     -1.86,      15.6,     -13.8,    0.957, 0,     100, 0, 1, 0, 0, 1, 1, 100,        50,        10, 1, 1, 0, 1, 0, 1, 0, 1, 0, 1
  1882,  1,        48,     -1.76,      15.2,     -14.2,    0.957, 0,     100, 0, 1, 0, 0, 1, 1, 100,        50,        10, 1, 1, 0, 1, 0, 1, 0, 1, 0, 1
  1685,  1,        48,     -1.91,     15.81,     -13.6,    0.957, 0,     100, 0, 1, 0, 0, 1, 1, 100,        50,        10, 1, 1, 0, 1, 0, 1, 0, 1, 0, 1
  1883,  1,        48,     -1.91,     15.81,     -13.6,    0.957, 0,     100, 0, 1, 0, 0, 1, 1, 100,        50,        10, 1, 1, 0, 1, 0, 1, 0, 1, 0, 1
  1884,  1,        48,     -1.91,     15.81,     -13.6,    0.957, 0,     100, 0, 1, 0, 0, 1, 1, 100,        50,        10, 1, 1, 0, 1, 0, 1, 0, 1, 0, 1
  1885,  1,        48,     -1.86,      15.6,     -13.8,    0.957, 0,     100, 0, 1, 0, 0, 1, 1, 100,        50,        10, 1, 1, 0, 1, 0, 1, 0, 1, 0, 1
  1686,  1,       965,    121.03,    532.91,    -90.14,    0.972, 0,     100, 0, 1, 0, 0, 1, 1, 100,      1000,       280, 1, 1, 0, 1, 0, 1, 0, 1, 0, 1
  1687,  1,       965,    122.14,    535.45,    -87.61,    0.973, 0,     100, 0, 1, 0, 0, 1, 1, 100,      1000,       280, 1, 1, 0, 1, 0, 1, 0, 1, 0, 1
  1688,  1,       965,    136.63,    567.71,     -88.3,    0.974, 0,     100, 0, 1, 0, 0, 1, 1, 100,      1000,       280, 1, 1, 0, 1, 0, 1, 0, 1, 0, 1
  1689,  1,         0,         0,    559.16,    -96.85,    0.964, 0,     100, 0, 1, 0, 0, 1, 0, 100,       930,       280, 1, 1, 0, 1, 0, 1, 0, 1, 0, 1
  1888,  1,        55,     -0.84,     17.35,    -17.35,    0.983, 0,     100, 0, 1, 0, 0, 1, 1, 100,        57,      11.4, 1, 1, 0, 1, 0, 1, 0, 1, 0, 1
  1690,  1,    420.09,     13.26,    219.77,   -155.72,    0.922, 0,     100, 0, 1, 0, 0, 1, 1, 100,       451,       239, 1, 1, 0, 1, 0, 1, 0, 1, 0, 1
  1691,  1,        21,      -4.1,     51.25,    -10.63,     0.95, 0,     100, 0, 1, 0, 0, 1, 1, 100,        63,        21, 1, 1, 0, 1, 0, 1, 0, 1, 0, 1
  1692,  1,     248.8,    -17.55,     258.1,   -182.18,     0.99, 0,     100, 0, 1, 0, 0, 1, 1, 100,     433.8,     248.8, 1, 1, 0, 1, 0, 1, 0, 1, 0, 1
  1693,  1,     81.81,      8.75,     71.21,    -44.25,     0.95, 0,     100, 0, 1, 0, 0, 1, 1, 100,    168.17,     81.81, 1, 1, 0, 1, 0, 1, 0, 1, 0, 1
  1694,  1,     82.28,      8.77,     73.34,    -37.69,     0.95, 0,     100, 0, 1, 0, 0, 1, 1, 100,     168.6,     82.28, 1, 1, 0, 1, 0, 1, 0, 1, 0, 1
  1695,  1,     53.91,     14.32,    113.53,     -43.7,     0.95, 0,     100, 0, 1, 0, 0, 1, 1, 100,    248.21,     53.91, 1, 1, 0, 1, 0, 1, 0, 1, 0, 1
  1696,  1,     43.97,     14.91,    100.92,    -59.36,     0.95, 0,     100, 0, 1, 0, 0, 1, 1, 100,    238.09,     43.97, 1, 1, 0, 1, 0, 1, 0, 1, 0, 1
  1697,  1,    229.69,    -21.95,    525.14,    -88.61,     0.95, 0,     100, 0, 1, 0, 0, 1, 1, 100,    919.69,    229.69, 1, 1, 0, 1, 0, 1, 0, 1, 0, 1
...